3
Coordinates from ORCA-job run E -76.320385565717
  O       0.013409      0.010263     -0.003685
  H       0.121124      0.976006      0.085999
  H       0.750163     -0.331322     -0.544814
3
Coordinates from ORCA-job run E -76.321113618631
  O       0.007930      0.006214     -0.000756
  H       0.133114      0.958806      0.075258
  H       0.743652     -0.310073     -0.537002
3
Coordinates from ORCA-job run E -76.321251611850
  O       0.001700      0.001609      0.002575
  H       0.139736      0.953821      0.070076
  H       0.743260     -0.300482     -0.535151
3
Coordinates from ORCA-job run E -76.321270536009
  O      -0.001236     -0.000562      0.004144
  H       0.141992      0.953268      0.068501
  H       0.743940     -0.297759     -0.535145
3
Coordinates from ORCA-job run E -76.321275373707
  O      -0.001274     -0.000590      0.004165
  H       0.141915      0.953482      0.068587
  H       0.744055     -0.297945     -0.535252
